# generated using pymatgen
data_CdH8(C4N3)3
_symmetry_space_group_name_H-M   'P 1'
_cell_length_a   7.98115447
_cell_length_b   8.82664357
_cell_length_c   10.10752711
_cell_angle_alpha   75.76829302
_cell_angle_beta   73.88779115
_cell_angle_gamma   82.76743114
_symmetry_Int_Tables_number   1
_chemical_formula_structural   CdH8(C4N3)3
_chemical_formula_sum   'Cd2 H16 C24 N18'
_cell_volume   661.80661823
_cell_formula_units_Z   2
loop_
 _symmetry_equiv_pos_site_id
 _symmetry_equiv_pos_as_xyz
  1  'x, y, z'
loop_
 _atom_site_type_symbol
 _atom_site_label
 _atom_site_symmetry_multiplicity
 _atom_site_fract_x
 _atom_site_fract_y
 _atom_site_fract_z
 _atom_site_occupancy
 _atom_site_charge
Cd  Cd0  1  0.20711390  0.87381094  0.45873607  1  0.804413
Cd  Cd1  1  0.79288331  0.12618477  0.54126159  1  0.804462
H  H2  1  0.70508515  0.96044537  0.87004003  1  0.083625
H  H3  1  0.29491078  0.03954926  0.12996507  1  0.083595
H  H4  1  0.85998410  0.22225623  0.12046611  1  0.106406
H  H5  1  0.14002222  0.77773947  0.87953453  1  0.106404
H  H6  1  0.98339771  0.41257095  0.89838600  1  0.119437
H  H7  1  0.01660339  0.58742478  0.10161477  1  0.119399
H  H8  1  0.49742939  0.77974394  0.65215743  1  0.083855
H  H9  1  0.50257003  0.22025876  0.34783622  1  0.083846
H  H10  1  0.25042246  0.26819383  0.76626896  1  0.111327
H  H11  1  0.74958080  0.73180897  0.23373571  1  0.111339
H  H12  1  0.61279123  0.56122938  0.81689756  1  0.112349
H  H13  1  0.38721043  0.43877920  0.18309924  1  0.11237
H  H14  1  0.71040320  0.99235627  0.10708074  1  0.110826
H  H15  1  0.28959521  0.00764067  0.89292232  1  0.110782
H  H16  1  0.48606121  0.29624796  0.87530257  1  0.108798
H  H17  1  0.51394186  0.70375832  0.12469840  1  0.108752
C  C18  1  0.76897772  0.05723113  0.88063786  1  0.095668
C  C19  1  0.23101788  0.94276933  0.11936305  1  0.095675
C  C20  1  0.97341841  0.39527209  0.62843847  1  0.1289
C  C21  1  0.02658125  0.60472599  0.37156210  1  0.12885
C  C22  1  0.85349088  0.20336646  0.01963575  1  -0.01758
C  C23  1  0.14650885  0.79663045  0.98036506  1  -0.017556
C  C24  1  0.92592378  0.30883292  0.89500334  1  -0.156333
C  C25  1  0.07407870  0.69116163  0.10499740  1  -0.156232
C  C26  1  0.24447816  0.51036840  0.65682034  1  0.176487
C  C27  1  0.75552128  0.48963321  0.34318146  1  0.17635
C  C28  1  0.10923452  0.50031167  0.58380468  1  0.122678
C  C29  1  0.89076780  0.49968526  0.41619853  1  0.122784
C  C30  1  0.44335643  0.66524345  0.68148915  1  0.100554
C  C31  1  0.55664420  0.33476046  0.31850892  1  0.100625
C  C32  1  0.30558142  0.38058872  0.74575935  1  -0.144496
C  C33  1  0.69441649  0.61941644  0.25424397  1  -0.144516
C  C34  1  0.91706352  0.28226903  0.76621179  1  0.170466
C  C35  1  0.08293759  0.71772669  0.23378799  1  0.170399
C  C36  1  0.50845269  0.54186554  0.77355601  1  -0.110331
C  C37  1  0.49154771  0.45814191  0.22644329  1  -0.110528
C  C38  1  0.77320799  0.07529928  0.01273374  1  -0.119279
C  C39  1  0.22678920  0.92469647  0.98726689  1  -0.119209
C  C40  1  0.43804109  0.39671296  0.80567064  1  -0.003573
C  C41  1  0.56195931  0.60329449  0.19432866  1  -0.003328
N  N42  1  0.31442639  0.65113379  0.62461553  1  -0.281085
N  N43  1  0.68557306  0.34886781  0.37538429  1  -0.281102
N  N44  1  0.12713710  0.60086489  0.45860924  1  -0.273778
N  N45  1  0.87286393  0.39913202  0.54139228  1  -0.273758
N  N46  1  0.83879131  0.15783294  0.76069120  1  -0.259868
N  N47  1  0.16120820  0.84216749  0.23930986  1  -0.25986
N  N48  1  0.47410642  0.94414513  0.31629636  1  -0.519089
N  N49  1  0.52589167  0.05585764  0.68370250  1  -0.519331
N  N50  1  0.60086444  0.94831960  0.35598123  1  0.404688
N  N51  1  0.39912202  0.05168200  0.64401348  1  0.404831
N  N52  1  0.85772311  0.68001633  0.83376312  1  -0.42225
N  N53  1  0.14227798  0.31997943  0.16624062  1  -0.421966
N  N54  1  0.93215783  0.86435178  0.61517284  1  -0.507829
N  N55  1  0.06783935  0.13564399  0.38482976  1  -0.507999
N  N56  1  0.89532959  0.77115419  0.72564103  1  0.417448
N  N57  1  0.10467350  0.22885312  0.27434685  1  0.41734
N  N58  1  0.73239373  0.95294947  0.38592490  1  -0.442469
N  N59  1  0.26760712  0.04705091  0.61407193  1  -0.442386
