# generated using pymatgen
data_LiH2C2O3
_symmetry_space_group_name_H-M   'P 1'
_cell_length_a   5.00523638
_cell_length_b   6.56300777
_cell_length_c   8.85998395
_cell_angle_alpha   95.86227135
_cell_angle_beta   90.00008031
_cell_angle_gamma   89.99661304
_symmetry_Int_Tables_number   1
_chemical_formula_structural   LiH2C2O3
_chemical_formula_sum   'Li4 H8 C8 O12'
_cell_volume   289.52312056
_cell_formula_units_Z   4
loop_
 _symmetry_equiv_pos_site_id
 _symmetry_equiv_pos_as_xyz
  1  'x, y, z'
loop_
 _atom_site_type_symbol
 _atom_site_label
 _atom_site_symmetry_multiplicity
 _atom_site_fract_x
 _atom_site_fract_y
 _atom_site_fract_z
 _atom_site_occupancy
 _atom_site_charge
Li  Li0  1  0.83858207  0.13013653  0.26263487  1  0.797636
Li  Li1  1  0.33862460  0.86990670  0.23736641  1  0.797648
Li  Li2  1  0.16132426  0.86990236  0.73735726  1  0.797718
Li  Li3  1  0.66148552  0.13012912  0.76262999  1  0.797539
H  H4  1  0.65793794  0.30691909  0.04407705  1  0.357463
H  H5  1  0.15772536  0.69310843  0.45589609  1  0.357373
H  H6  1  0.34227007  0.69313207  0.95590359  1  0.357249
H  H7  1  0.84211904  0.30692434  0.54408992  1  0.357479
H  H8  1  0.18556364  0.45365966  0.13055166  1  0.08603
H  H9  1  0.68563150  0.54634646  0.36951012  1  0.085831
H  H10  1  0.81438464  0.54632548  0.86952213  1  0.085937
H  H11  1  0.31438471  0.45363714  0.63056693  1  0.086111
C  C12  1  0.16907570  0.24406377  0.92676339  1  0.638293
C  C13  1  0.66920188  0.75589844  0.57319485  1  0.638233
C  C14  1  0.83085860  0.75591085  0.07318769  1  0.63791
C  C15  1  0.33087827  0.24405470  0.42677378  1  0.638523
C  C16  1  0.03853902  0.40560098  0.04159355  1  0.03662
C  C17  1  0.53847821  0.59441395  0.45837084  1  0.036931
C  C18  1  0.96151316  0.59443028  0.95837541  1  0.036661
C  C19  1  0.46144410  0.40562494  0.54162128  1  0.036334
O  O20  1  0.81322276  0.33001534  0.11596554  1  -0.57143
O  O21  1  0.31310519  0.66993566  0.38404563  1  -0.57135
O  O22  1  0.18687137  0.66996223  0.88405011  1  -0.571191
O  O23  1  0.68679315  0.33003426  0.61597169  1  -0.571463
O  O24  1  0.01923253  0.12777247  0.84019730  1  -0.705432
O  O25  1  0.51917311  0.87210364  0.65971047  1  -0.705431
O  O26  1  0.98081166  0.87211329  0.15975376  1  -0.705272
O  O27  1  0.48076919  0.12780053  0.34023071  1  -0.705458
O  O28  1  0.42254050  0.23693663  0.92154061  1  -0.63913
O  O29  1  0.92274011  0.76314487  0.57852698  1  -0.639095
O  O30  1  0.57730590  0.76312823  0.07850090  1  -0.638976
O  O31  1  0.07739798  0.23691844  0.42152118  1  -0.639292
